data_image0
_chemical_formula_structural       Mo2C
_chemical_formula_sum              "Mo2 C1"
_cell_length_a       3.0704433040153756
_cell_length_b       3.0704433040153756
_cell_length_c       4.64851299034162
_cell_angle_alpha    90.0
_cell_angle_beta     90.0
_cell_angle_gamma    119.99999999999999

_space_group_name_H-M_alt    "P 1"
_space_group_IT_number       1

loop_
  _space_group_symop_operation_xyz
  'x, y, z'

loop_
  _atom_site_type_symbol
  _atom_site_label
  _atom_site_symmetry_multiplicity
  _atom_site_fract_x
  _atom_site_fract_y
  _atom_site_fract_z
  _atom_site_occupancy
  Mo  Mo1       1.0  0.33333300000000005  0.6666669999999999  0.24993499999999993  1.0000
  Mo  Mo2       1.0  0.6666669999999999  0.3333329999999999  0.750065  1.0000
  C   C1        1.0  0.0  0.0  0.5  1.0000
